&HEAD CHID='test_03_unseen_q_high', TITLE='[database_candidate] 100 m 条件域协议 V2 外部计算输入；协议 V1 的 4/12 FAIL 保持不变；闭合与反演结论等待开发结果和冻结后的封存测试' /
&MESH ID='MESH_X01_Y01_Z01', IJK=37 40 10, XB=0.000 9.250 0.000 10.000 0.000 2.500 /
&MESH ID='MESH_X01_Y01_Z02', IJK=37 40 10, XB=0.000 9.250 0.000 10.000 2.500 5.000 /
&MESH ID='MESH_X02_Y01_Z01', IJK=37 40 10, XB=9.250 18.500 0.000 10.000 0.000 2.500 /
&MESH ID='MESH_X02_Y01_Z02', IJK=37 40 10, XB=9.250 18.500 0.000 10.000 2.500 5.000 /
&MESH ID='MESH_X03_Y01_Z01', IJK=37 40 10, XB=18.500 27.750 0.000 10.000 0.000 2.500 /
&MESH ID='MESH_X03_Y01_Z02', IJK=37 40 10, XB=18.500 27.750 0.000 10.000 2.500 5.000 /
&MESH ID='MESH_X04_Y01_Z01', IJK=37 40 10, XB=27.750 37.000 0.000 10.000 0.000 2.500 /
&MESH ID='MESH_X04_Y01_Z02', IJK=37 40 10, XB=27.750 37.000 0.000 10.000 2.500 5.000 /
&MESH ID='MESH_X05_Y01_Z01', IJK=36 40 10, XB=37.000 46.000 0.000 10.000 0.000 2.500 /
&MESH ID='MESH_X05_Y01_Z02', IJK=36 40 10, XB=37.000 46.000 0.000 10.000 2.500 5.000 /
&MESH ID='MESH_X06_Y01_Z01', IJK=36 40 10, XB=46.000 55.000 0.000 10.000 0.000 2.500 /
&MESH ID='MESH_X06_Y01_Z02', IJK=36 40 10, XB=46.000 55.000 0.000 10.000 2.500 5.000 /
&MESH ID='MESH_X07_Y01_Z01', IJK=36 40 10, XB=55.000 64.000 0.000 10.000 0.000 2.500 /
&MESH ID='MESH_X07_Y01_Z02', IJK=36 40 10, XB=55.000 64.000 0.000 10.000 2.500 5.000 /
&MESH ID='MESH_X08_Y01_Z01', IJK=36 40 10, XB=64.000 73.000 0.000 10.000 0.000 2.500 /
&MESH ID='MESH_X08_Y01_Z02', IJK=36 40 10, XB=64.000 73.000 0.000 10.000 2.500 5.000 /
&MESH ID='MESH_X09_Y01_Z01', IJK=36 40 10, XB=73.000 82.000 0.000 10.000 0.000 2.500 /
&MESH ID='MESH_X09_Y01_Z02', IJK=36 40 10, XB=73.000 82.000 0.000 10.000 2.500 5.000 /
&MESH ID='MESH_X10_Y01_Z01', IJK=36 40 10, XB=82.000 91.000 0.000 10.000 0.000 2.500 /
&MESH ID='MESH_X10_Y01_Z02', IJK=36 40 10, XB=82.000 91.000 0.000 10.000 2.500 5.000 /
&MESH ID='MESH_X11_Y01_Z01', IJK=36 40 10, XB=91.000 100.000 0.000 10.000 0.000 2.500 /
&MESH ID='MESH_X11_Y01_Z02', IJK=36 40 10, XB=91.000 100.000 0.000 10.000 2.500 5.000 /
&TIME T_END=300.0 /
&DUMP DT_DEVC=1.0, DT_HRR=1.0, DT_SLCF=5.0, DT_BNDF=10.0 /
&MISC SIMULATION_MODE='LES', RESTART=.FALSE., TMPA=20.0 /
&REAC FUEL='N-HEPTANE', SOOT_YIELD=0.037, CO_YIELD=0.01 /
&MATL ID='concrete', DENSITY=2300.0, CONDUCTIVITY=1.4, SPECIFIC_HEAT=0.88 /
&SURF ID='WALL', MATL_ID='concrete', EMISSIVITY=0.9, THICKNESS=0.2 /
&SURF ID='BURNER', HRRPUA=1716.0, TAU_Q=10.0, COLOR='ORANGE' /
&SURF ID='INLET', VEL=-4.066, RAMP_V='ramp_inlet' /
&VENT XB=0.00 0.00 0.00 10.00 0.00 5.00, SURF_ID='INLET' /
&RAMP ID='ramp_inlet', T=0.0, F=0.0 /
&RAMP ID='ramp_inlet', T=10.0, F=1.0 /
&VENT XB=46.750 53.250 1.750 8.250 0.00 0.00, SURF_ID='BURNER' /
&VENT XB=0.00 46.750 0.00 10.00 0.00 0.00, SURF_ID='WALL' /
&VENT XB=53.250 100.00 0.00 10.00 0.00 0.00, SURF_ID='WALL' /
&VENT XB=46.750 53.250 0.00 1.750 0.00 0.00, SURF_ID='WALL' /
&VENT XB=46.750 53.250 8.250 10.00 0.00 0.00, SURF_ID='WALL' /
&VENT XB=0.00 100.00 0.00 10.00 5.00 5.00, SURF_ID='WALL' /
&VENT XB=0.00 100.00 0.00 0.00 0.00 5.00, SURF_ID='WALL' /
&VENT XB=0.00 100.00 10.00 10.00 0.00 5.00, SURF_ID='WALL' /
&VENT XB=100.00 100.00 0.00 10.00 0.00 5.00, SURF_ID='OPEN' /
&DEVC ID='T_1500', QUANTITY='TEMPERATURE', XYZ=15.000 5.000 4.500 /
&DEVC ID='T_2000', QUANTITY='TEMPERATURE', XYZ=20.000 5.000 4.500 /
&DEVC ID='T_2500', QUANTITY='TEMPERATURE', XYZ=25.000 5.000 4.500 /
&DEVC ID='T_3000', QUANTITY='TEMPERATURE', XYZ=30.000 5.000 4.500 /
&DEVC ID='T_3250', QUANTITY='TEMPERATURE', XYZ=32.500 5.000 4.500 /
&DEVC ID='T_3500', QUANTITY='TEMPERATURE', XYZ=35.000 5.000 4.500 /
&DEVC ID='T_3750', QUANTITY='TEMPERATURE', XYZ=37.500 5.000 4.500 /
&DEVC ID='T_4000', QUANTITY='TEMPERATURE', XYZ=40.000 5.000 4.500 /
&DEVC ID='T_4250', QUANTITY='TEMPERATURE', XYZ=42.500 5.000 4.500 /
&DEVC ID='T_4500', QUANTITY='TEMPERATURE', XYZ=45.000 5.000 4.500 /
&DEVC ID='T_4750', QUANTITY='TEMPERATURE', XYZ=47.500 5.000 4.500 /
&DEVC ID='T_5000', QUANTITY='TEMPERATURE', XYZ=50.000 5.000 4.500 /
&DEVC ID='T_5250', QUANTITY='TEMPERATURE', XYZ=52.500 5.000 4.500 /
&DEVC ID='T_5500', QUANTITY='TEMPERATURE', XYZ=55.000 5.000 4.500 /
&DEVC ID='T_5750', QUANTITY='TEMPERATURE', XYZ=57.500 5.000 4.500 /
&DEVC ID='T_6000', QUANTITY='TEMPERATURE', XYZ=60.000 5.000 4.500 /
&DEVC ID='T_6250', QUANTITY='TEMPERATURE', XYZ=62.500 5.000 4.500 /
&DEVC ID='T_6500', QUANTITY='TEMPERATURE', XYZ=65.000 5.000 4.500 /
&DEVC ID='T_6750', QUANTITY='TEMPERATURE', XYZ=67.500 5.000 4.500 /
&DEVC ID='T_7000', QUANTITY='TEMPERATURE', XYZ=70.000 5.000 4.500 /
&DEVC ID='T_7500', QUANTITY='TEMPERATURE', XYZ=75.000 5.000 4.500 /
&DEVC ID='T_8000', QUANTITY='TEMPERATURE', XYZ=80.000 5.000 4.500 /
&DEVC ID='T_8500', QUANTITY='TEMPERATURE', XYZ=85.000 5.000 4.500 /
&DEVC ID='U_1500', QUANTITY='U-VELOCITY', XYZ=15.000 5.000 4.750 /
&DEVC ID='U_2000', QUANTITY='U-VELOCITY', XYZ=20.000 5.000 4.750 /
&DEVC ID='U_2500', QUANTITY='U-VELOCITY', XYZ=25.000 5.000 4.750 /
&DEVC ID='U_3000', QUANTITY='U-VELOCITY', XYZ=30.000 5.000 4.750 /
&DEVC ID='U_3250', QUANTITY='U-VELOCITY', XYZ=32.500 5.000 4.750 /
&DEVC ID='U_3500', QUANTITY='U-VELOCITY', XYZ=35.000 5.000 4.750 /
&DEVC ID='U_3750', QUANTITY='U-VELOCITY', XYZ=37.500 5.000 4.750 /
&DEVC ID='U_4000', QUANTITY='U-VELOCITY', XYZ=40.000 5.000 4.750 /
&DEVC ID='U_4250', QUANTITY='U-VELOCITY', XYZ=42.500 5.000 4.750 /
&DEVC ID='U_4500', QUANTITY='U-VELOCITY', XYZ=45.000 5.000 4.750 /
&DEVC ID='U_4750', QUANTITY='U-VELOCITY', XYZ=47.500 5.000 4.750 /
&DEVC ID='U_5000', QUANTITY='U-VELOCITY', XYZ=50.000 5.000 4.750 /
&DEVC ID='U_5250', QUANTITY='U-VELOCITY', XYZ=52.500 5.000 4.750 /
&DEVC ID='U_5500', QUANTITY='U-VELOCITY', XYZ=55.000 5.000 4.750 /
&DEVC ID='U_5750', QUANTITY='U-VELOCITY', XYZ=57.500 5.000 4.750 /
&DEVC ID='U_6000', QUANTITY='U-VELOCITY', XYZ=60.000 5.000 4.750 /
&DEVC ID='U_6250', QUANTITY='U-VELOCITY', XYZ=62.500 5.000 4.750 /
&DEVC ID='U_6500', QUANTITY='U-VELOCITY', XYZ=65.000 5.000 4.750 /
&DEVC ID='U_6750', QUANTITY='U-VELOCITY', XYZ=67.500 5.000 4.750 /
&DEVC ID='U_7000', QUANTITY='U-VELOCITY', XYZ=70.000 5.000 4.750 /
&DEVC ID='U_7500', QUANTITY='U-VELOCITY', XYZ=75.000 5.000 4.750 /
&DEVC ID='U_8000', QUANTITY='U-VELOCITY', XYZ=80.000 5.000 4.750 /
&DEVC ID='U_8500', QUANTITY='U-VELOCITY', XYZ=85.000 5.000 4.750 /
&DEVC ID='HRR_tot', QUANTITY='HRRPUV', XB=0.00 100.00 0.00 10.00 0.00 5.00, SPATIAL_STATISTIC='VOLUME INTEGRAL' /
&DEVC ID='Qw_4000', QUANTITY='NET HEAT FLUX', XYZ=40.000 5.000 5.000, IOR=-3 /
&DEVC ID='Qw_5000', QUANTITY='NET HEAT FLUX', XYZ=50.000 5.000 5.000, IOR=-3 /
&DEVC ID='Qw_6000', QUANTITY='NET HEAT FLUX', XYZ=60.000 5.000 5.000, IOR=-3 /
&BNDF QUANTITY='WALL TEMPERATURE' /
&SLCF PBY=5.00, QUANTITY='TEMPERATURE' /
&SLCF PBY=5.00, QUANTITY='VELOCITY', VECTOR=.TRUE. /
&SLCF PBY=5.00, QUANTITY='DENSITY' /
&SLCF PBX=15.00, QUANTITY='TEMPERATURE' /
&SLCF PBX=15.00, QUANTITY='VELOCITY', VECTOR=.TRUE. /
&SLCF PBX=15.00, QUANTITY='DENSITY' /
&SLCF PBX=22.00, QUANTITY='TEMPERATURE' /
&SLCF PBX=22.00, QUANTITY='VELOCITY', VECTOR=.TRUE. /
&SLCF PBX=22.00, QUANTITY='DENSITY' /
&SLCF PBX=29.00, QUANTITY='TEMPERATURE' /
&SLCF PBX=29.00, QUANTITY='VELOCITY', VECTOR=.TRUE. /
&SLCF PBX=29.00, QUANTITY='DENSITY' /
&SLCF PBX=39.50, QUANTITY='TEMPERATURE' /
&SLCF PBX=39.50, QUANTITY='VELOCITY', VECTOR=.TRUE. /
&SLCF PBX=39.50, QUANTITY='DENSITY' /
&SLCF PBX=46.50, QUANTITY='TEMPERATURE' /
&SLCF PBX=46.50, QUANTITY='VELOCITY', VECTOR=.TRUE. /
&SLCF PBX=46.50, QUANTITY='DENSITY' /
&SLCF PBX=50.00, QUANTITY='TEMPERATURE' /
&SLCF PBX=50.00, QUANTITY='VELOCITY', VECTOR=.TRUE. /
&SLCF PBX=50.00, QUANTITY='DENSITY' /
&SLCF PBX=53.50, QUANTITY='TEMPERATURE' /
&SLCF PBX=53.50, QUANTITY='VELOCITY', VECTOR=.TRUE. /
&SLCF PBX=53.50, QUANTITY='DENSITY' /
&SLCF PBX=60.50, QUANTITY='TEMPERATURE' /
&SLCF PBX=60.50, QUANTITY='VELOCITY', VECTOR=.TRUE. /
&SLCF PBX=60.50, QUANTITY='DENSITY' /
&SLCF PBX=71.00, QUANTITY='TEMPERATURE' /
&SLCF PBX=71.00, QUANTITY='VELOCITY', VECTOR=.TRUE. /
&SLCF PBX=71.00, QUANTITY='DENSITY' /
&SLCF PBX=78.00, QUANTITY='TEMPERATURE' /
&SLCF PBX=78.00, QUANTITY='VELOCITY', VECTOR=.TRUE. /
&SLCF PBX=78.00, QUANTITY='DENSITY' /
&SLCF PBX=85.00, QUANTITY='TEMPERATURE' /
&SLCF PBX=85.00, QUANTITY='VELOCITY', VECTOR=.TRUE. /
&SLCF PBX=85.00, QUANTITY='DENSITY' /
&TAIL /
