smoke_gsB.fds
Generated by PyroSim 2023.3.1312
2026年7月29日 13:36:12

&HEAD CHID='smoke_gsB', TITLE='Q=40.0MW U=2.5m/s Df=5.0m dx=0.25m L=100.0 W=10.0 H=5.0'/
&TIME T_END=5.0/
&DUMP DT_BNDF=10.0, DT_DEVC=1.0, DT_HRR=1.0, DT_SLCF=5.0/
&MISC SIMULATION_MODE='LES'/

&MESH ID='网格(Mesh)01', IJK=400,40,20, XB=0.0,100.0,0.0,10.0,0.0,5.0/


&REAC ID='反应(Reaction)1',
      FUEL='N-HEPTANE',
      CO_YIELD=0.01,
      SOOT_YIELD=0.037/

&DEVC ID='T_1500', QUANTITY='TEMPERATURE', XYZ=15.0,5.0,4.5/
&DEVC ID='T_2000', QUANTITY='TEMPERATURE', XYZ=20.0,5.0,4.5/
&DEVC ID='T_2500', QUANTITY='TEMPERATURE', XYZ=25.0,5.0,4.5/
&DEVC ID='T_3000', QUANTITY='TEMPERATURE', XYZ=30.0,5.0,4.5/
&DEVC ID='T_3250', QUANTITY='TEMPERATURE', XYZ=32.5,5.0,4.5/
&DEVC ID='T_3500', QUANTITY='TEMPERATURE', XYZ=35.0,5.0,4.5/
&DEVC ID='T_3750', QUANTITY='TEMPERATURE', XYZ=37.5,5.0,4.5/
&DEVC ID='T_4000', QUANTITY='TEMPERATURE', XYZ=40.0,5.0,4.5/
&DEVC ID='T_4250', QUANTITY='TEMPERATURE', XYZ=42.5,5.0,4.5/
&DEVC ID='T_4500', QUANTITY='TEMPERATURE', XYZ=45.0,5.0,4.5/
&DEVC ID='T_4750', QUANTITY='TEMPERATURE', XYZ=47.5,5.0,4.5/
&DEVC ID='T_5000', QUANTITY='TEMPERATURE', XYZ=50.0,5.0,4.5/
&DEVC ID='T_5250', QUANTITY='TEMPERATURE', XYZ=52.5,5.0,4.5/
&DEVC ID='T_5500', QUANTITY='TEMPERATURE', XYZ=55.0,5.0,4.5/
&DEVC ID='T_5750', QUANTITY='TEMPERATURE', XYZ=57.5,5.0,4.5/
&DEVC ID='T_6000', QUANTITY='TEMPERATURE', XYZ=60.0,5.0,4.5/
&DEVC ID='T_6250', QUANTITY='TEMPERATURE', XYZ=62.5,5.0,4.5/
&DEVC ID='T_6500', QUANTITY='TEMPERATURE', XYZ=65.0,5.0,4.5/
&DEVC ID='T_6750', QUANTITY='TEMPERATURE', XYZ=67.5,5.0,4.5/
&DEVC ID='T_7000', QUANTITY='TEMPERATURE', XYZ=70.0,5.0,4.5/
&DEVC ID='T_7500', QUANTITY='TEMPERATURE', XYZ=75.0,5.0,4.5/
&DEVC ID='T_8000', QUANTITY='TEMPERATURE', XYZ=80.0,5.0,4.5/
&DEVC ID='T_8500', QUANTITY='TEMPERATURE', XYZ=85.0,5.0,4.5/
&DEVC ID='U_1500', QUANTITY='U-VELOCITY', XYZ=15.0,5.0,4.75/
&DEVC ID='U_2000', QUANTITY='U-VELOCITY', XYZ=20.0,5.0,4.75/
&DEVC ID='U_2500', QUANTITY='U-VELOCITY', XYZ=25.0,5.0,4.75/
&DEVC ID='U_3000', QUANTITY='U-VELOCITY', XYZ=30.0,5.0,4.75/
&DEVC ID='U_3250', QUANTITY='U-VELOCITY', XYZ=32.5,5.0,4.75/
&DEVC ID='U_3500', QUANTITY='U-VELOCITY', XYZ=35.0,5.0,4.75/
&DEVC ID='U_3750', QUANTITY='U-VELOCITY', XYZ=37.5,5.0,4.75/
&DEVC ID='U_4000', QUANTITY='U-VELOCITY', XYZ=40.0,5.0,4.75/
&DEVC ID='U_4250', QUANTITY='U-VELOCITY', XYZ=42.5,5.0,4.75/
&DEVC ID='U_4500', QUANTITY='U-VELOCITY', XYZ=45.0,5.0,4.75/
&DEVC ID='U_4750', QUANTITY='U-VELOCITY', XYZ=47.5,5.0,4.75/
&DEVC ID='U_5000', QUANTITY='U-VELOCITY', XYZ=50.0,5.0,4.75/
&DEVC ID='U_5250', QUANTITY='U-VELOCITY', XYZ=52.5,5.0,4.75/
&DEVC ID='U_5500', QUANTITY='U-VELOCITY', XYZ=55.0,5.0,4.75/
&DEVC ID='U_5750', QUANTITY='U-VELOCITY', XYZ=57.5,5.0,4.75/
&DEVC ID='U_6000', QUANTITY='U-VELOCITY', XYZ=60.0,5.0,4.75/
&DEVC ID='U_6250', QUANTITY='U-VELOCITY', XYZ=62.5,5.0,4.75/
&DEVC ID='U_6500', QUANTITY='U-VELOCITY', XYZ=65.0,5.0,4.75/
&DEVC ID='U_6750', QUANTITY='U-VELOCITY', XYZ=67.5,5.0,4.75/
&DEVC ID='U_7000', QUANTITY='U-VELOCITY', XYZ=70.0,5.0,4.75/
&DEVC ID='U_7500', QUANTITY='U-VELOCITY', XYZ=75.0,5.0,4.75/
&DEVC ID='U_8000', QUANTITY='U-VELOCITY', XYZ=80.0,5.0,4.75/
&DEVC ID='U_8500', QUANTITY='U-VELOCITY', XYZ=85.0,5.0,4.75/
&DEVC ID='Qw_4000', QUANTITY='NET HEAT FLUX', XYZ=40.0,5.0,5.0, IOR=-3/
&DEVC ID='Qw_5000', QUANTITY='NET HEAT FLUX', XYZ=50.0,5.0,5.0, IOR=-3/
&DEVC ID='Qw_6000', QUANTITY='NET HEAT FLUX', XYZ=60.0,5.0,5.0, IOR=-3/

&MATL ID='concrete',
      SPECIFIC_HEAT=0.88,
      CONDUCTIVITY=1.4,
      DENSITY=2300.0/

&SURF ID='WALL',
      MATL_ID(1,1)='concrete',
      MATL_MASS_FRACTION(1,1)=1.0,
      THICKNESS(1)=0.2/
&SURF ID='BURNER',
      COLOR='ORANGE',
      HRRPUA=1.975309E+3,
      TAU_Q=10.0/
&SURF ID='INLET',
      VEL=-2.5,
      RAMP_V='INLET_RAMP_V'/
&RAMP ID='INLET_RAMP_V', T=0.0, F=0.0/
&RAMP ID='INLET_RAMP_V', T=10.0, F=1.0/

&VENT ID='Vent #1', SURF_ID='INLET', XB=0.0,0.0,0.0,10.0,0.0,5.0/ 
&VENT ID='Vent #2', SURF_ID='BURNER', XB=47.75,52.25,2.75,7.25,0.0,0.0/ 
&VENT ID='Vent #3', SURF_ID='WALL', XB=0.0,47.75,0.0,10.0,0.0,0.0/ 
&VENT ID='Vent #4', SURF_ID='WALL', XB=52.25,100.0,0.0,10.0,0.0,0.0/ 
&VENT ID='Vent #5', SURF_ID='WALL', XB=47.75,52.25,0.0,2.75,0.0,0.0/ 
&VENT ID='Vent #6', SURF_ID='WALL', XB=47.75,52.25,7.25,10.0,0.0,0.0/ 
&VENT ID='Vent #7', SURF_ID='WALL', XB=0.0,100.0,0.0,10.0,5.0,5.0/ 
&VENT ID='Vent #8', SURF_ID='WALL', XB=0.0,100.0,0.0,0.0,0.0,5.0/ 
&VENT ID='Vent #9', SURF_ID='WALL', XB=0.0,100.0,10.0,10.0,0.0,5.0/ 
&VENT ID='Vent #10', SURF_ID='OPEN', XB=100.0,100.0,0.0,10.0,0.0,5.0/ 

&BNDF QUANTITY='WALL TEMPERATURE'/

&SLCF QUANTITY='TEMPERATURE', ID='Y = 5.0 m: 温度(Temperature)', PBY=5.0/
&SLCF QUANTITY='VELOCITY', VECTOR=.TRUE., ID='Y = 5.0 m: 速度(Velocity)', PBY=5.0/
&SLCF QUANTITY='DENSITY', ID='Y = 5.0 m: 密度(Density)', PBY=5.0/
&SLCF QUANTITY='TEMPERATURE', ID='X = 15.0 m: 温度(Temperature)', PBX=15.0/
&SLCF QUANTITY='VELOCITY', VECTOR=.TRUE., ID='X = 15.0 m: 速度(Velocity)', PBX=15.0/
&SLCF QUANTITY='DENSITY', ID='X = 15.0 m: 密度(Density)', PBX=15.0/
&SLCF QUANTITY='TEMPERATURE', ID='X = 22.0 m: 温度(Temperature)', PBX=22.0/
&SLCF QUANTITY='VELOCITY', VECTOR=.TRUE., ID='X = 22.0 m: 速度(Velocity)', PBX=22.0/
&SLCF QUANTITY='DENSITY', ID='X = 22.0 m: 密度(Density)', PBX=22.0/
&SLCF QUANTITY='TEMPERATURE', ID='X = 29.0 m: 温度(Temperature)', PBX=29.0/
&SLCF QUANTITY='VELOCITY', VECTOR=.TRUE., ID='X = 29.0 m: 速度(Velocity)', PBX=29.0/
&SLCF QUANTITY='DENSITY', ID='X = 29.0 m: 密度(Density)', PBX=29.0/
&SLCF QUANTITY='TEMPERATURE', ID='X = 39.5 m: 温度(Temperature)', PBX=39.5/
&SLCF QUANTITY='VELOCITY', VECTOR=.TRUE., ID='X = 39.5 m: 速度(Velocity)', PBX=39.5/
&SLCF QUANTITY='DENSITY', ID='X = 39.5 m: 密度(Density)', PBX=39.5/
&SLCF QUANTITY='TEMPERATURE', ID='X = 46.5 m: 温度(Temperature)', PBX=46.5/
&SLCF QUANTITY='VELOCITY', VECTOR=.TRUE., ID='X = 46.5 m: 速度(Velocity)', PBX=46.5/
&SLCF QUANTITY='DENSITY', ID='X = 46.5 m: 密度(Density)', PBX=46.5/
&SLCF QUANTITY='TEMPERATURE', ID='X = 50.0 m: 温度(Temperature)', PBX=50.0/
&SLCF QUANTITY='VELOCITY', VECTOR=.TRUE., ID='X = 50.0 m: 速度(Velocity)', PBX=50.0/
&SLCF QUANTITY='DENSITY', ID='X = 50.0 m: 密度(Density)', PBX=50.0/
&SLCF QUANTITY='TEMPERATURE', ID='X = 53.5 m: 温度(Temperature)', PBX=53.5/
&SLCF QUANTITY='VELOCITY', VECTOR=.TRUE., ID='X = 53.5 m: 速度(Velocity)', PBX=53.5/
&SLCF QUANTITY='DENSITY', ID='X = 53.5 m: 密度(Density)', PBX=53.5/
&SLCF QUANTITY='TEMPERATURE', ID='X = 60.5 m: 温度(Temperature)', PBX=60.5/
&SLCF QUANTITY='VELOCITY', VECTOR=.TRUE., ID='X = 60.5 m: 速度(Velocity)', PBX=60.5/
&SLCF QUANTITY='DENSITY', ID='X = 60.5 m: 密度(Density)', PBX=60.5/
&SLCF QUANTITY='TEMPERATURE', ID='X = 71.0 m: 温度(Temperature)', PBX=71.0/
&SLCF QUANTITY='VELOCITY', VECTOR=.TRUE., ID='X = 71.0 m: 速度(Velocity)', PBX=71.0/
&SLCF QUANTITY='DENSITY', ID='X = 71.0 m: 密度(Density)', PBX=71.0/
&SLCF QUANTITY='TEMPERATURE', ID='X = 78.0 m: 温度(Temperature)', PBX=78.0/
&SLCF QUANTITY='VELOCITY', VECTOR=.TRUE., ID='X = 78.0 m: 速度(Velocity)', PBX=78.0/
&SLCF QUANTITY='DENSITY', ID='X = 78.0 m: 密度(Density)', PBX=78.0/
&SLCF QUANTITY='TEMPERATURE', ID='X = 85.0 m: 温度(Temperature)', PBX=85.0/
&SLCF QUANTITY='VELOCITY', VECTOR=.TRUE., ID='X = 85.0 m: 速度(Velocity)', PBX=85.0/
&SLCF QUANTITY='DENSITY', ID='X = 85.0 m: 密度(Density)', PBX=85.0/

&DEVC ID='HRR_tot', QUANTITY='HRRPUV', SPATIAL_STATISTIC='VOLUME INTEGRAL', XB=0.0,100.0,0.0,10.0,0.0,5.0/


&TAIL /
