&HEAD CHID='p_q018_s40_x50_g20_r104729', TITLE='[G2_PILOT] G2 low power fine grid' /
&MESH ID='MESH_01', IJK=45 50 12, XB=0.000 9.000 0.000 10.000 0.000 2.400 /
&MESH ID='MESH_02', IJK=45 50 13, XB=0.000 9.000 0.000 10.000 2.400 5.000 /
&MESH ID='MESH_03', IJK=45 50 12, XB=9.000 18.000 0.000 10.000 0.000 2.400 /
&MESH ID='MESH_04', IJK=45 50 13, XB=9.000 18.000 0.000 10.000 2.400 5.000 /
&MESH ID='MESH_05', IJK=45 50 12, XB=18.000 27.000 0.000 10.000 0.000 2.400 /
&MESH ID='MESH_06', IJK=45 50 13, XB=18.000 27.000 0.000 10.000 2.400 5.000 /
&MESH ID='MESH_07', IJK=45 50 12, XB=27.000 36.000 0.000 10.000 0.000 2.400 /
&MESH ID='MESH_08', IJK=45 50 13, XB=27.000 36.000 0.000 10.000 2.400 5.000 /
&MESH ID='MESH_09', IJK=140 50 5, XB=36.000 64.000 0.000 10.000 0.000 1.000 /
&MESH ID='MESH_10', IJK=140 50 5, XB=36.000 64.000 0.000 10.000 1.000 2.000 /
&MESH ID='MESH_11', IJK=140 50 5, XB=36.000 64.000 0.000 10.000 2.000 3.000 /
&MESH ID='MESH_12', IJK=140 50 5, XB=36.000 64.000 0.000 10.000 3.000 4.000 /
&MESH ID='MESH_13', IJK=140 50 5, XB=36.000 64.000 0.000 10.000 4.000 5.000 /
&MESH ID='MESH_14', IJK=45 50 12, XB=64.000 73.000 0.000 10.000 0.000 2.400 /
&MESH ID='MESH_15', IJK=45 50 13, XB=64.000 73.000 0.000 10.000 2.400 5.000 /
&MESH ID='MESH_16', IJK=45 50 12, XB=73.000 82.000 0.000 10.000 0.000 2.400 /
&MESH ID='MESH_17', IJK=45 50 13, XB=73.000 82.000 0.000 10.000 2.400 5.000 /
&MESH ID='MESH_18', IJK=45 50 12, XB=82.000 91.000 0.000 10.000 0.000 2.400 /
&MESH ID='MESH_19', IJK=45 50 13, XB=82.000 91.000 0.000 10.000 2.400 5.000 /
&MESH ID='MESH_20', IJK=45 50 12, XB=91.000 100.000 0.000 10.000 0.000 2.400 /
&MESH ID='MESH_21', IJK=45 50 13, XB=91.000 100.000 0.000 10.000 2.400 5.000 /
&TIME T_END=300.0 /
&DUMP DT_DEVC=1.0, DT_HRR=1.0, DT_SLCF=5.0, DT_BNDF=10.0 /
&MISC SIMULATION_MODE='LES', RESTART=.FALSE., TMPA=20.0, RND_SEED=104729 /
&MATL ID='concrete', DENSITY=2300.0, CONDUCTIVITY=1.4, SPECIFIC_HEAT=0.88 /
&SURF ID='WALL', MATL_ID='concrete', EMISSIVITY=0.9, THICKNESS=0.2 /
&REAC FUEL='N-HEPTANE', SOOT_YIELD=0.037, CO_YIELD=0.01 /
&SURF ID='BURNER', HRRPUA=1125.0, TAU_Q=10.0, COLOR='ORANGE' /
&VENT XB=0.00 0.00 0.00 10.00 0.00 5.00, SURF_ID='OPEN' /
&VENT XB=48.000 52.000 3.000 7.000 0.00 0.00, SURF_ID='BURNER' /
&VENT XB=0.00 48.000 0.00 10.00 0.00 0.00, SURF_ID='WALL' /
&VENT XB=52.000 100.00 0.00 10.00 0.00 0.00, SURF_ID='WALL' /
&VENT XB=48.000 52.000 0.00 3.000 0.00 0.00, SURF_ID='WALL' /
&VENT XB=48.000 52.000 7.000 10.00 0.00 0.00, SURF_ID='WALL' /
&VENT XB=0.00 100.00 0.00 10.00 5.00 5.00, SURF_ID='WALL' /
&VENT XB=0.00 100.00 0.00 0.00 0.00 5.00, SURF_ID='WALL' /
&VENT XB=0.00 100.00 10.00 10.00 0.00 5.00, SURF_ID='WALL' /
&VENT XB=100.00 100.00 0.00 10.00 0.00 5.00, SURF_ID='OPEN' /
&DEVC ID='T85_0500', QUANTITY='TEMPERATURE', XYZ=5.000 5.000 4.250 /
&DEVC ID='T85_1000', QUANTITY='TEMPERATURE', XYZ=10.000 5.000 4.250 /
&DEVC ID='T85_1500', QUANTITY='TEMPERATURE', XYZ=15.000 5.000 4.250 /
&DEVC ID='T85_1750', QUANTITY='TEMPERATURE', XYZ=17.500 5.000 4.250 /
&DEVC ID='T85_2000', QUANTITY='TEMPERATURE', XYZ=20.000 5.000 4.250 /
&DEVC ID='T85_2250', QUANTITY='TEMPERATURE', XYZ=22.500 5.000 4.250 /
&DEVC ID='T85_2500', QUANTITY='TEMPERATURE', XYZ=25.000 5.000 4.250 /
&DEVC ID='T85_2750', QUANTITY='TEMPERATURE', XYZ=27.500 5.000 4.250 /
&DEVC ID='T85_3000', QUANTITY='TEMPERATURE', XYZ=30.000 5.000 4.250 /
&DEVC ID='T85_3125', QUANTITY='TEMPERATURE', XYZ=31.250 5.000 4.250 /
&DEVC ID='T85_3250', QUANTITY='TEMPERATURE', XYZ=32.500 5.000 4.250 /
&DEVC ID='T85_3375', QUANTITY='TEMPERATURE', XYZ=33.750 5.000 4.250 /
&DEVC ID='T85_3500', QUANTITY='TEMPERATURE', XYZ=35.000 5.000 4.250 /
&DEVC ID='T85_3625', QUANTITY='TEMPERATURE', XYZ=36.250 5.000 4.250 /
&DEVC ID='T85_3750', QUANTITY='TEMPERATURE', XYZ=37.500 5.000 4.250 /
&DEVC ID='T85_3875', QUANTITY='TEMPERATURE', XYZ=38.750 5.000 4.250 /
&DEVC ID='T85_4000', QUANTITY='TEMPERATURE', XYZ=40.000 5.000 4.250 /
&DEVC ID='T85_4125', QUANTITY='TEMPERATURE', XYZ=41.250 5.000 4.250 /
&DEVC ID='T85_4250', QUANTITY='TEMPERATURE', XYZ=42.500 5.000 4.250 /
&DEVC ID='T85_4375', QUANTITY='TEMPERATURE', XYZ=43.750 5.000 4.250 /
! ... 127 like lines cut
&DEVC ID='U95_0500', QUANTITY='U-VELOCITY', XYZ=5.000 5.000 4.750 /
&DEVC ID='U95_1000', QUANTITY='U-VELOCITY', XYZ=10.000 5.000 4.750 /
&DEVC ID='U95_1500', QUANTITY='U-VELOCITY', XYZ=15.000 5.000 4.750 /
&DEVC ID='U95_1750', QUANTITY='U-VELOCITY', XYZ=17.500 5.000 4.750 /
&DEVC ID='U95_2000', QUANTITY='U-VELOCITY', XYZ=20.000 5.000 4.750 /
&DEVC ID='U95_2250', QUANTITY='U-VELOCITY', XYZ=22.500 5.000 4.750 /
&DEVC ID='U95_2500', QUANTITY='U-VELOCITY', XYZ=25.000 5.000 4.750 /
&DEVC ID='U95_2750', QUANTITY='U-VELOCITY', XYZ=27.500 5.000 4.750 /
&DEVC ID='U95_3000', QUANTITY='U-VELOCITY', XYZ=30.000 5.000 4.750 /
&DEVC ID='U95_3125', QUANTITY='U-VELOCITY', XYZ=31.250 5.000 4.750 /
&DEVC ID='U95_3250', QUANTITY='U-VELOCITY', XYZ=32.500 5.000 4.750 /
&DEVC ID='U95_3375', QUANTITY='U-VELOCITY', XYZ=33.750 5.000 4.750 /
&DEVC ID='U95_3500', QUANTITY='U-VELOCITY', XYZ=35.000 5.000 4.750 /
&DEVC ID='U95_3625', QUANTITY='U-VELOCITY', XYZ=36.250 5.000 4.750 /
&DEVC ID='U95_3750', QUANTITY='U-VELOCITY', XYZ=37.500 5.000 4.750 /
&DEVC ID='U95_3875', QUANTITY='U-VELOCITY', XYZ=38.750 5.000 4.750 /
&DEVC ID='U95_4000', QUANTITY='U-VELOCITY', XYZ=40.000 5.000 4.750 /
&DEVC ID='U95_4125', QUANTITY='U-VELOCITY', XYZ=41.250 5.000 4.750 /
&DEVC ID='U95_4250', QUANTITY='U-VELOCITY', XYZ=42.500 5.000 4.750 /
&DEVC ID='U95_4375', QUANTITY='U-VELOCITY', XYZ=43.750 5.000 4.750 /
! ... 29 like lines cut
&DEVC ID='HRR_tot', QUANTITY='HRRPUV', XB=0.00 100.00 0.00 10.00 0.00 5.00, SPATIAL_STATISTIC='VOLUME INTEGRAL' /
&DEVC ID='Qw_4000', QUANTITY='NET HEAT FLUX', XYZ=40.000 5.000 5.000, IOR=-3 /
&DEVC ID='Qw_5000', QUANTITY='NET HEAT FLUX', XYZ=50.000 5.000 5.000, IOR=-3 /
&DEVC ID='Qw_6000', QUANTITY='NET HEAT FLUX', XYZ=60.000 5.000 5.000, IOR=-3 /
&SLCF PBY=5.00, QUANTITY='TEMPERATURE' /
&SLCF PBY=5.00, QUANTITY='VELOCITY', VECTOR=.TRUE. /
&TAIL /
