&HEAD CHID='tunnel_benchmark', TITLE='[benchmark] Q=40MW U=2.5m/s Df=5.0m dx=0.25m L=100 W=10 H=5' /
&MESH IJK=400 40 20, XB=0.00 100.00 0.00 10.00 0.00 5.00 /
&TIME T_END=300.0 /
&DUMP DT_DEVC=1.0, DT_SLCF=5.0, DT_BNDF=10.0 /
&MISC SIMULATION_MODE='LES', RESTART=.FALSE., TMPA=20.0 /
&SPEC ID='n-HEPTANE' /
&REAC FUEL='n-HEPTANE', SIMPLE_CHEMISTRY=.TRUE., SOOT_YIELD=0.037, CO_YIELD=0.010 /
&MATL ID='concrete', DENSITY=2300.0, CONDUCTIVITY=1.4, SPECIFIC_HEAT=880.0 /
&SURF ID='WALL', MATL_ID='concrete', EMISSIVITY=0.9, THICKNESS=0.20 /
&SURF ID='BURNER', HRRPUA=2037183.4, TAU=10.0, COLOR='ORANGE' /
&SURF ID='INLET', VEL=-2.500, RAMP_V='ramp_inlet' /
&VENT XB=0.00 0.00 0.00 10.00 0.00 5.00, SURF_ID='INLET' /
&RAMP ID='ramp_inlet', T=0.0, F=0.0 /
&RAMP ID='ramp_inlet', T=10.0, F=1.0 /
&VENT XB=0.00 100.00 0.00 10.00 0.00 0.00, SURF_ID='WALL' /
&VENT XB=0.00 100.00 0.00 10.00 5.00 5.00, SURF_ID='WALL' /
&VENT XB=0.00 100.00 0.00 0.00 0.00 5.00, SURF_ID='WALL' /
&VENT XB=0.00 100.00 10.00 10.00 0.00 5.00, SURF_ID='WALL' /
&VENT XB=100.00 100.00 0.00 10.00 0.00 5.00, SURF_ID='OPEN' /
&VENT XB=47.784 52.216 2.784 7.216 0.00 0.00, SURF_ID='BURNER' /
&DEVC ID='T_1500', QUANTITY='TEMPERATURE', XYZ=15.000 5.000 4.500, UNITS='C' /
&DEVC ID='T_2000', QUANTITY='TEMPERATURE', XYZ=20.000 5.000 4.500, UNITS='C' /
&DEVC ID='T_2500', QUANTITY='TEMPERATURE', XYZ=25.000 5.000 4.500, UNITS='C' /
&DEVC ID='T_3000', QUANTITY='TEMPERATURE', XYZ=30.000 5.000 4.500, UNITS='C' /
&DEVC ID='T_3250', QUANTITY='TEMPERATURE', XYZ=32.500 5.000 4.500, UNITS='C' /
&DEVC ID='T_3500', QUANTITY='TEMPERATURE', XYZ=35.000 5.000 4.500, UNITS='C' /
&DEVC ID='T_3750', QUANTITY='TEMPERATURE', XYZ=37.500 5.000 4.500, UNITS='C' /
&DEVC ID='T_4000', QUANTITY='TEMPERATURE', XYZ=40.000 5.000 4.500, UNITS='C' /
&DEVC ID='T_4250', QUANTITY='TEMPERATURE', XYZ=42.500 5.000 4.500, UNITS='C' /
&DEVC ID='T_4500', QUANTITY='TEMPERATURE', XYZ=45.000 5.000 4.500, UNITS='C' /
&DEVC ID='T_4750', QUANTITY='TEMPERATURE', XYZ=47.500 5.000 4.500, UNITS='C' /
&DEVC ID='T_5000', QUANTITY='TEMPERATURE', XYZ=50.000 5.000 4.500, UNITS='C' /
&DEVC ID='T_5250', QUANTITY='TEMPERATURE', XYZ=52.500 5.000 4.500, UNITS='C' /
&DEVC ID='T_5500', QUANTITY='TEMPERATURE', XYZ=55.000 5.000 4.500, UNITS='C' /
&DEVC ID='T_5750', QUANTITY='TEMPERATURE', XYZ=57.500 5.000 4.500, UNITS='C' /
&DEVC ID='T_6000', QUANTITY='TEMPERATURE', XYZ=60.000 5.000 4.500, UNITS='C' /
&DEVC ID='T_6250', QUANTITY='TEMPERATURE', XYZ=62.500 5.000 4.500, UNITS='C' /
&DEVC ID='T_6500', QUANTITY='TEMPERATURE', XYZ=65.000 5.000 4.500, UNITS='C' /
&DEVC ID='T_6750', QUANTITY='TEMPERATURE', XYZ=67.500 5.000 4.500, UNITS='C' /
&DEVC ID='T_7000', QUANTITY='TEMPERATURE', XYZ=70.000 5.000 4.500, UNITS='C' /
&DEVC ID='T_7500', QUANTITY='TEMPERATURE', XYZ=75.000 5.000 4.500, UNITS='C' /
&DEVC ID='T_8000', QUANTITY='TEMPERATURE', XYZ=80.000 5.000 4.500, UNITS='C' /
&DEVC ID='T_8500', QUANTITY='TEMPERATURE', XYZ=85.000 5.000 4.500, UNITS='C' /
&DEVC ID='U_1500', QUANTITY='U VELOCITY', XYZ=15.000 5.000 4.750, UNITS='m/s' /
&DEVC ID='U_2000', QUANTITY='U VELOCITY', XYZ=20.000 5.000 4.750, UNITS='m/s' /
&DEVC ID='U_2500', QUANTITY='U VELOCITY', XYZ=25.000 5.000 4.750, UNITS='m/s' /
&DEVC ID='U_3000', QUANTITY='U VELOCITY', XYZ=30.000 5.000 4.750, UNITS='m/s' /
&DEVC ID='U_3250', QUANTITY='U VELOCITY', XYZ=32.500 5.000 4.750, UNITS='m/s' /
&DEVC ID='U_3500', QUANTITY='U VELOCITY', XYZ=35.000 5.000 4.750, UNITS='m/s' /
&DEVC ID='U_3750', QUANTITY='U VELOCITY', XYZ=37.500 5.000 4.750, UNITS='m/s' /
&DEVC ID='U_4000', QUANTITY='U VELOCITY', XYZ=40.000 5.000 4.750, UNITS='m/s' /
&DEVC ID='U_4250', QUANTITY='U VELOCITY', XYZ=42.500 5.000 4.750, UNITS='m/s' /
&DEVC ID='U_4500', QUANTITY='U VELOCITY', XYZ=45.000 5.000 4.750, UNITS='m/s' /
&DEVC ID='U_4750', QUANTITY='U VELOCITY', XYZ=47.500 5.000 4.750, UNITS='m/s' /
&DEVC ID='U_5000', QUANTITY='U VELOCITY', XYZ=50.000 5.000 4.750, UNITS='m/s' /
&DEVC ID='U_5250', QUANTITY='U VELOCITY', XYZ=52.500 5.000 4.750, UNITS='m/s' /
&DEVC ID='U_5500', QUANTITY='U VELOCITY', XYZ=55.000 5.000 4.750, UNITS='m/s' /
&DEVC ID='U_5750', QUANTITY='U VELOCITY', XYZ=57.500 5.000 4.750, UNITS='m/s' /
&DEVC ID='U_6000', QUANTITY='U VELOCITY', XYZ=60.000 5.000 4.750, UNITS='m/s' /
&DEVC ID='U_6250', QUANTITY='U VELOCITY', XYZ=62.500 5.000 4.750, UNITS='m/s' /
&DEVC ID='U_6500', QUANTITY='U VELOCITY', XYZ=65.000 5.000 4.750, UNITS='m/s' /
&DEVC ID='U_6750', QUANTITY='U VELOCITY', XYZ=67.500 5.000 4.750, UNITS='m/s' /
&DEVC ID='U_7000', QUANTITY='U VELOCITY', XYZ=70.000 5.000 4.750, UNITS='m/s' /
&DEVC ID='U_7500', QUANTITY='U VELOCITY', XYZ=75.000 5.000 4.750, UNITS='m/s' /
&DEVC ID='U_8000', QUANTITY='U VELOCITY', XYZ=80.000 5.000 4.750, UNITS='m/s' /
&DEVC ID='U_8500', QUANTITY='U VELOCITY', XYZ=85.000 5.000 4.750, UNITS='m/s' /
&DEVC ID='HRR_tot', QUANTITY='HRR', XB=0.00 100.00 0.00 10.00 0.00 5.00, STATISTICS='VOLUME INTEGRATION', UNITS='kW' /
&DEVC ID='HRR_conv', QUANTITY='CONVECTIVE HRR', XB=0.00 100.00 0.00 10.00 0.00 5.00, STATISTICS='VOLUME INTEGRATION', UNITS='kW' /
&DEVC ID='Qw_4000', QUANTITY='NET HEAT FLUX', XYZ=40.000 5.000 5.000, IOR=3, UNITS='kW/m^2' /
&DEVC ID='Qw_5000', QUANTITY='NET HEAT FLUX', XYZ=50.000 5.000 5.000, IOR=3, UNITS='kW/m^2' /
&DEVC ID='Qw_6000', QUANTITY='NET HEAT FLUX', XYZ=60.000 5.000 5.000, IOR=3, UNITS='kW/m^2' /
&BNDF QUANTITY='WALL TEMPERATURE' /
&SLCF PBY=5.00, QUANTITY='TEMPERATURE' /
&SLCF PBY=5.00, QUANTITY='VELOCITY', VECTOR=.TRUE. /
&SLCF PBY=5.00, QUANTITY='DENSITY' /
&SLCF PBX=15.00, QUANTITY='TEMPERATURE' /
&SLCF PBX=15.00, QUANTITY='VELOCITY', VECTOR=.TRUE. /
&SLCF PBX=15.00, QUANTITY='DENSITY' /
&SLCF PBX=22.00, QUANTITY='TEMPERATURE' /
&SLCF PBX=22.00, QUANTITY='VELOCITY', VECTOR=.TRUE. /
&SLCF PBX=22.00, QUANTITY='DENSITY' /
&SLCF PBX=29.00, QUANTITY='TEMPERATURE' /
&SLCF PBX=29.00, QUANTITY='VELOCITY', VECTOR=.TRUE. /
&SLCF PBX=29.00, QUANTITY='DENSITY' /
&SLCF PBX=36.50, QUANTITY='TEMPERATURE' /
&SLCF PBX=36.50, QUANTITY='VELOCITY', VECTOR=.TRUE. /
&SLCF PBX=36.50, QUANTITY='DENSITY' /
&SLCF PBX=43.50, QUANTITY='TEMPERATURE' /
&SLCF PBX=43.50, QUANTITY='VELOCITY', VECTOR=.TRUE. /
&SLCF PBX=43.50, QUANTITY='DENSITY' /
&SLCF PBX=50.00, QUANTITY='TEMPERATURE' /
&SLCF PBX=50.00, QUANTITY='VELOCITY', VECTOR=.TRUE. /
&SLCF PBX=50.00, QUANTITY='DENSITY' /
&SLCF PBX=56.50, QUANTITY='TEMPERATURE' /
&SLCF PBX=56.50, QUANTITY='VELOCITY', VECTOR=.TRUE. /
&SLCF PBX=56.50, QUANTITY='DENSITY' /
&SLCF PBX=63.50, QUANTITY='TEMPERATURE' /
&SLCF PBX=63.50, QUANTITY='VELOCITY', VECTOR=.TRUE. /
&SLCF PBX=63.50, QUANTITY='DENSITY' /
&SLCF PBX=71.00, QUANTITY='TEMPERATURE' /
&SLCF PBX=71.00, QUANTITY='VELOCITY', VECTOR=.TRUE. /
&SLCF PBX=71.00, QUANTITY='DENSITY' /
&SLCF PBX=78.00, QUANTITY='TEMPERATURE' /
&SLCF PBX=78.00, QUANTITY='VELOCITY', VECTOR=.TRUE. /
&SLCF PBX=78.00, QUANTITY='DENSITY' /
&SLCF PBX=85.00, QUANTITY='TEMPERATURE' /
&SLCF PBX=85.00, QUANTITY='VELOCITY', VECTOR=.TRUE. /
&SLCF PBX=85.00, QUANTITY='DENSITY' /
&TAIL /
